12
Generated by RDKit
C 1.7336 0.6661 0.0992
O 1.3281 1.7684 -0.3560
N 0.9206 -0.5090 0.0140
C -0.4102 -0.5081 -0.5907
C -1.4284 0.1425 0.3413
F -1.4842 -0.5472 1.5392
H 2.7131 0.6074 0.5549
H 1.3233 -1.4146 0.3440
H -0.3848 0.0297 -1.5631
H -0.7244 -1.5559 -0.7883
H -2.4317 0.1208 -0.1339
H -1.1552 1.1999 0.5394
