20
Generated by RDKit
C -3.9364 -0.2984 0.3435
C -2.6728 -0.4913 -0.4795
O -1.5332 -0.1769 0.3142
C -0.2279 -0.2605 -0.1756
O -0.0125 -0.6314 -1.3630
O 0.8351 0.0655 0.6726
C 2.2017 0.0562 0.2623
C 2.5104 1.2871 -0.5873
S 3.2495 0.0591 1.7318
O 2.9444 -1.2794 2.3903
H -4.0109 0.7566 0.6826
H -4.8268 -0.5429 -0.2733
H -3.9172 -0.9664 1.2305
H -2.6139 -1.5482 -0.8193
H -2.7077 0.1764 -1.3677
H 2.4205 -0.8664 -0.3192
H 2.2878 2.2137 -0.0165
H 1.8962 1.2802 -1.5116
H 3.5817 1.2892 -0.8807
H 4.5321 -0.1222 1.2204
