17
Generated by RDKit
C -0.5268 -1.1275 0.4642
C -1.8705 -0.8414 0.7243
C -2.4383 0.3456 0.2528
C -1.6615 1.2510 -0.4781
Cl -2.3722 2.7439 -1.0637
C -0.3161 0.9662 -0.7395
C 0.2546 -0.2277 -0.2748
S 1.9516 -0.5780 -0.5887
O 2.3611 0.0272 -1.9022
O 2.1604 -2.0648 -0.6585
N 2.9246 0.0816 0.6784
H -0.0969 -2.0469 0.8408
H -2.4713 -1.5390 1.2935
H -3.4790 0.5619 0.4581
H 0.2820 1.6737 -1.2998
H 2.5794 -0.3308 1.5740
H 2.7189 1.1050 0.7194
