12
Generated by RDKit
O -2.1995 0.4265 0.5175
C -0.9369 0.5339 -0.0780
C -0.2514 -0.8298 -0.0688
O 1.0120 -0.7628 -0.7279
C 2.1529 -0.1983 -0.1488
O 2.1328 0.2525 1.0277
H -2.5997 1.3338 0.4790
H -1.0455 0.8822 -1.1294
H -0.3197 1.2682 0.4850
H -0.8917 -1.5576 -0.6110
H -0.1236 -1.1938 0.9743
H 3.0703 -0.1548 -0.7194
