16
Generated by RDKit
C -3.5740 0.4513 0.1073
O -3.9246 -0.5809 0.7378
N -2.1928 0.7251 -0.1415
N -1.1779 -0.1409 0.3047
C 0.2052 0.1358 0.0545
O 0.5384 1.1743 -0.5790
N 1.2096 -0.7722 0.5251
C 2.6322 -0.5448 0.2949
O 3.0425 0.6025 0.9844
H -4.3294 1.1385 -0.2500
H -1.9510 1.5938 -0.6688
H -1.4268 -1.0080 0.8318
H 0.9154 -1.6404 1.0267
H 3.2089 -1.4243 0.6587
H 2.8172 -0.4250 -0.7959
H 4.0071 0.7152 0.7804
