12
Generated by RDKit
C -1.3117 0.6019 0.0037
C -0.1821 1.4257 0.0455
C 1.0974 0.8604 0.0426
C 1.2482 -0.5309 -0.0021
Cl 2.8524 -1.2405 -0.0058
C 0.1171 -1.3550 -0.0440
C -1.1624 -0.7885 -0.0410
F -2.2574 -1.5868 -0.0815
H -2.3009 1.0413 0.0060
H -0.2981 2.5013 0.0801
H 1.9684 1.5024 0.0751
H 0.2292 -2.4313 -0.0786
